power-flow-agent/results/ieee14/2026-09-23/gpt-5.6-sol/plan_act_nogate__matched/traces/35_case14-plain-016-s0.transcript.txt
==============================================================================
TRANSCRIPT  plan_act_nogate  |  openrouter:openai/gpt-5.6-sol  |  case14  |  case14-plain-016-s0  run 0
==============================================================================
date: 2026-09-23   seed: 0   difficulty: plain   tool variant: load_split

[system]   (hash 7da5e2a37ec4, from methods/plan_act_nogate/method.json prompt_files)
You are a power system power-flow analysis assistant. You help the user complete power system analysis tasks from natural-language requests.

## What you can do
You complete tasks by calling tool functions:
1. Load an IEEE standard test system (14, 30, 57, 118, 300 buses)
2. Run AC power flow
3. Modify the load at a bus and re-solve
4. Disconnect or reconnect a line and re-solve
5. Query the network status
6. Run an N-1 contingency analysis (disconnect branches one at a time and rank the worst cases)
7. Generate remedial-action suggestions (what-if load shedding or voltage adjustment) to reduce violation risk

## Key rules
- Never fabricate any numerical result. Every voltage, power, loss, or loading value must come from a tool return value.
- If a tool reports an error or a non-converged power flow, say so explicitly and do not report numbers for that state.
- If the request is ambiguous, state the interpretation you are using.
- Bus and line identifiers in the request are MATPOWER 1-based ids; pass them to the tools as given, unless the request itself states a different indexing convention for that identifier (e.g. "(0-based)"), in which case convert it to the MATPOWER 1-based id before calling any tool.
- After a network modification, re-solve before reporting any value.
- Always reply in English.

## Reply format
After each analysis, reply in this structure:
1. One-sentence summary
2. Key numbers (total load, total generation, total losses, voltage range) taken from the tool outputs
3. Violations, if any
4. Suggested next step

[user]   (complete message, stored at run time)
Load case14 and run an N-1 contingency analysis and report the worst single outage.

[tools available to the model]   (function-calling schema, --tool-variant load_split; enum values and defaults as sent)
  load_case(case_name: string* in {case14, case30, case57, case118, case300})  Load IEEE test case.
  run_powerflow()  Run power flow on current case.
  disconnect_line(from_bus: integer*, to_bus: integer*)  Disconnect line/branch between two buses and recompute.
  reconnect_line(from_bus: integer*, to_bus: integer*)  Reconnect line/branch between two buses and recompute.
  get_most_loaded_branch()  Get most loaded branch.
  run_n1_contingency(top_k: integer (default 5), criteria: string in {max_violations, max_overload, min_voltage} (default max_violations), max_candidates: integer (default 0))  Run N-1 contingency analysis.
  recommend_remedial_actions(max_actions: integer (default 5), allow_load_shed: boolean (default True), allow_voltage_control: boolean (default True), include_best_comparison: boolean (default True))  Recommend remedial actions.
  apply_remedial_action(action_index: integer*, confirmed: boolean (default False))  Apply one remedial action by index.
  get_status()  Get current network status.
  generate_plot(plot_type: string* in {voltage_heatmap, flow_diagram, violation_overview, comparison})  Generate one plot.
  set_active_load(bus_id: integer*, p_mw: number*)  Set a bus's active load (MW) and recompute. Use this when the request states only an active-power value. This tool has no reactive-power argument: the bus's present reactive load is always left unchanged. If the request also states a reactive-power value, use set_load instead.
  set_load(bus_id: integer*, p_mw: number*, q_mvar: number*)  Set a bus's active and reactive load (MW, Mvar) and recompute. Use this only when the request states both values. If the request states only an active-power value, use set_active_load instead -- do not invent a reactive-power value here to fill this in.

[planner system prompt]   (hash 76ea681e520a; as assembled today from methods/plan_act; the planning call sends this plus the request)
You are the planner of a power-system analysis agent. You cannot call tools yourself. Given the user's request, output ONLY a JSON object of the form
{"plan": [{"tool": "<tool_name>", "args": {...}}, ...]}
listing, in execution order, every tool call needed to answer the request. Use only the tools below with exactly these argument names (* = required); where an argument lists allowed values, use one of them verbatim. Bus and line identifiers in the request are MATPOWER 1-based ids; pass them to the tools as given, unless the request itself states a different indexing convention for that identifier (e.g. "(0-based)"), in which case convert it to the MATPOWER 1-based id. Do not include explanations, markdown, or any text outside the JSON.

Available tools:
- load_case(case_name: string in {case14, case30, case57, case118, case300}*): Load IEEE test case.
- run_powerflow((none)): Run power flow on current case.
- disconnect_line(from_bus: integer*, to_bus: integer*): Disconnect line/branch between two buses and recompute.
- reconnect_line(from_bus: integer*, to_bus: integer*): Reconnect line/branch between two buses and recompute.
- get_most_loaded_branch((none)): Get most loaded branch.
- run_n1_contingency(top_k: integer, criteria: string in {max_violations, max_overload, min_voltage}, max_candidates: integer): Run N-1 contingency analysis.
- recommend_remedial_actions(max_actions: integer, allow_load_shed: boolean, allow_voltage_control: boolean, include_best_comparison: boolean): Recommend remedial actions.
- apply_remedial_action(action_index: integer*, confirmed: boolean): Apply one remedial action by index.
- get_status((none)): Get current network status.
- generate_plot(plot_type: string in {voltage_heatmap, flow_diagram, violation_overview, comparison}*): Generate one plot.
- set_active_load(bus_id: integer*, p_mw: number*): Set a bus's active load (MW) and recompute. Use this when the request states only an active-power value. This tool has no reactive-power argument: the bus's present reactive load is always left unchanged. If the request also states a reactive-power value, use set_load instead.
- set_load(bus_id: integer*, p_mw: number*, q_mvar: number*): Set a bus's active and reactive load (MW, Mvar) and recompute. Use this only when the request states both values. If the request states only an active-power value, use set_active_load instead -- do not invent a reactive-power value here to fill this in.

[planner output]
[
 {
  "tool": "load_case",
  "args": {
   "case_name": "case14"
  }
 },
 {
  "tool": "run_powerflow",
  "args": {}
 },
 {
  "tool": "run_n1_contingency",
  "args": {
   "top_k": 1,
   "criteria": "max_violations",
   "max_candidates": 20
  }
 }
]

--- round 1 ---
[assistant]   (598 in / 151 out tokens, 5.2 s)
{"plan":[{"tool":"load_case","args":{"case_name":"case14"}},{"tool":"run_powerflow","args":{}},{"tool":"run_n1_contingency","args":{"top_k":1,"criteria":"max_violations","max_candidates":20}}]}

--- round 2 ---
[tool load_case]   (gate: not applied)
{"case_name": "case14", "n_buses": 14, "n_generators": 5, "n_lines": 20, "n_loads": 11, "total_load_mw": 251.47423249500744, "total_gen_capacity_mw": 772.4000000000001}
[tool run_powerflow]   (gate: pass)
{"case_name": "case14", "converged": true, "bus_voltages": [{"bus_id": 1, "vm_pu": 1.06, "va_deg": 0.0, "is_violation": true, "violation_type": "overvoltage"}, {"bus_id": 2, "vm_pu": 1.0450000000000002, "va_deg": -4.787479779466152, "is_violation": false, "violation_type": null}, {"bus_id": 3, "vm_pu": 1.0100000000000002, "va_deg": -11.944578742749709, "is_violation": false, "violation_type": null}, {"bus_id": 4, "vm_pu": 1.0177942345212772, "va_deg": -9.975638861247521, "is_violation": false, "violation_type": null}, {"bus_id": 5, "vm_pu": 1.0197705908245693, "va_deg": -8.495858826428922, "is_violation": false, "violation_type": null}, {"bus_id": 6, "vm_pu": 1.0699999999999998, "va_deg": -13.93850424104771, "is_violation": true, "violation_type": "overvoltage"}, {"bus_id": 7, "vm_pu": 1.0615064189633727, "va_deg": -13.038678270069713, "is_violation": true, "violation_type": "overvoltage"}, {"bus_id": 8, "vm_pu": 1.09, "va_deg": -13.038678270069713, "is_violation": true, "violation_type": "overvoltage"}, {"bus_id": 9, "vm_pu": 1.0558499846023834, "va_deg": -14.626335641901134, "is_violation": true, "violation_type": "overvoltage"}, {"bus_id": 10, "vm_pu": 1.050330293508807, "va_deg": -14.813724466932717, "is_violation": true, "violation_type": "overvoltage"}, {"bus_id": 11, "vm_pu": 1.0564618375736745, "va_deg": -14.511822014708661, "is_violation": true, "violation_type": "overvoltage"}, {"bus_id": 12, "vm_pu": 1.05470952234172, "va_deg": -14.81246298622684, "is_violation": true, "violation_type": "overvoltage"}, {"bus_id": 13, "vm_pu": 1.050511276818626, "va_deg": -14.86768495700057, "is_violation": true, "violation_type": "overvoltage"}, {"bus_id": 14, "vm_pu": 1.0364953348098673, "va_deg": -15.679137864070228, "is_violation": false, "violation_type": null}], "line_flows": [{"line_id": 0, "from_bus": 1, "to_bus": 2, "p_from_mw": 150.98591150799626, "q_from_mvar": -19.015717567710432, "loading_percent": 1.4501491789469934, "is_violation": false}, {"line_id": 1, "from_bus": 1, "to_bus": 5, "p_from_mw": 73.22363314677052, "q_from_mvar": 3.9353149156374325, "loading_percent": 0.6996938323625493, "is_violation": false}, {"line_id": 2, "from_bus": 2, "to_bus": 3, "p_from_mw": 67.96570924373717, "q_from_mvar": 4.1052559271419575, "loading_percent": 0.6596703015164183, "is_violation": false}, {"line_id": 3, "from_bus": 2, "to_bus": 4, "p_from_mw": 54.730904648351206, "q_from_mvar": -1.2987461275573304, "loading_percent": 0.5291799515355052, "is_violation": false}, {"line_id": 4, "from_bus": 2, "to_bus": 5, "p_from_mw": 40.66374948142617, "q_from_mvar": 1.2382630535321963, "loading_percent": 0.39483492556410105, "is_violation": false}, {"line_id": 5, "from_bus": 3, "to_bus": 4, "p_from_mw": -19.34530678992392, "q_from_mvar": 2.6787320788202176, "loading_percent": 0.197321490811152, "is_violation": false}, {"line_id": 6, "from_bus": 4, "to_bus": 5, "p_from_mw": -58.97698856693615, "q_from_mvar": 14.742456401879606, "loading_percent": 0.6033214678467304, "is_violation": false}, {"line_id": 7, "from_bus": 6, "to_bus": 11, "p_from_mw": 7.473915682535308, "q_from_mvar": 3.742433364056857, "loading_percent": 0.07890627702373128, "is_violation": false}, {"line_id": 8, "from_bus": 6, "to_bus": 12, "p_from_mw": 7.983572125373574, "q_from_mvar": 2.6111127440043904, "loading_percent": 0.0792950272449637, "is_violation": false}, {"line_id": 9, "from_bus": 6, "to_bus": 13, "p_from_mw": 17.63218262392773, "q_from_mvar": 7.167462755119742, "loading_percent": 0.1796780589350986, "is_violation": false}, {"line_id": 10, "from_bus": 9, "to_bus": 10, "p_from_mw": 6.035951167117323, "q_from_mvar": 4.631787991254228, "loading_percent": 0.07278635682026868, "is_violation": false}, {"line_id": 11, "from_bus": 9, "to_bus": 14, "p_from_mw": 9.027170046402015, "q_from_mvar": 3.3826159878864526, "loading_percent": 0.09222421605967218, "is_violation": false}, {"line_id": 12, "from_bus": 10, "to_bus": 11, "p_from_mw": -3.782753689428338, "q_from_mvar": -1.7290534499081256, "loading_percent": 0.039998853825544155, "is_violation": false}, {"line_id": 13, "from_bus": 12, "to_bus": 13, "p_from_mw": 1.3427346877281259, "q_from_mvar": 0.7314762221320043, "loading_percent": 0.014643794501339446, "is_violation": false}, {"line_id": 14, "from_bus": 13, "to_bus": 14, "p_from_mw": 5.256269866039616, "q_from_mvar": 1.680524230426916, "loading_percent": 0.05306104627217688, "is_violation": false}, {"line_id": 100000, "from_bus": 4, "to_bus": 7, "p_from_mw": 28.22742424674273, "q_from_mvar": -9.604925323859524, "loading_percent": 0.29591431527623013, "is_violation": false}, {"line_id": 100001, "from_bus": 4, "to_bus": 9, "p_from_mw": 16.167447194671855, "q_from_mvar": -0.3811742558329356, "loading_percent": 0.16049700766197153, "is_violation": false}, {"line_id": 100002, "from_bus": 5, "to_bus": 6, "p_from_mw": 44.06252808017735, "q_from_mvar": 12.589993988275133, "loading_percent": 0.45391386774528375, "is_violation": false}, {"line_id": 100003, "from_bus": 7, "to_bus": 8, "p_from_mw": -7.245414816612033e-15, "q_from_mvar": -17.170660896754537, "loading_percent": 0.16339139929884994, "is_violation": false}, {"line_id": 100004, "from_bus": 7, "to_bus": 9, "p_from_mw": 28.227424246373584, "q_from_mvar": 5.8491098359889575, "loading_percent": 0.27431059302948696, "is_violation": false}], "total_generation_mw": 263.777525329442, "total_load_mw": 251.47423249500744, "total_loss_mw": 12.303292839692258, "voltage_violations": [{"bus_id": 1, "vm_pu": 1.06, "va_deg": 0.0, "is_violation": true, "violation_type": "overvoltage"}, {"bus_id": 6, "vm_pu": 1.0699999999999998, "va_deg": -13.93850424104771, "is_violation": true, "violation_type": "overvoltage"}, {"bus_id": 7, "vm_pu": 1.0615064189633727, "va_deg": -13.038678270069713, "is_violation": true, "violation_type": "overvoltage"}, {"bus_id": 8, "vm_pu": 1.09, "va_deg": -13.038678270069713, "is_violation": true, "violation_type": "overvoltage"}, {"bus_id": 9, "vm_pu": 1.0558499846023834, "va_deg": -14.626335641901134, "is_violation": true, "violation_type": "overvoltage"}, {"bus_id": 10, "vm_pu": 1.050330293508807, "va_deg": -14.813724466932717, "is_violation": true, "violation_type": "overvoltage"}, {"bus_id": 11, "vm_pu": 1.0564618375736745, "va_deg": -14.511822014708661, "is_violation": true, "violation_type": "overvoltage"}, {"bus_id": 12, "vm_pu": 1.05470952234172, "va_deg": -14.81246298622684, "is_violation": true, "violation_type": "overvoltage"}, {"bus_id": 13, "vm_pu": 1.050511276818626, "va_deg": -14.86768495700057, "is_violation": true, "violation_type": "overvoltage"}], "thermal_violations": [], "summary_text": "", "solver_backend": "pandapower", "llm_prompt": null, "llm_response": null}
[tool run_n1_contingency]   (gate: not applied)
{"plot_type": "n1_ranking", "figure_json": "<plotly figure, 8 KB, omitted; see the .json trace>", "n1_report": {"case_name": "case14", "base_converged": true, "top_k": 1, "criteria": "max_violations", "results": [{"branch_id": 100002, "branch_type": "trafo", "from_bus": 5, "to_bus": 6, "converged": true, "n_voltage_violations": 9, "n_thermal_violations": 0, "delta_voltage_violations": 0, "delta_thermal_violations": 0, "worst_vm_pu": 1.01, "worst_loading_percent": 1.4947792629740715, "score": 90001.49477926297, "notes": ""}], "summary_text": "N-1 completed over 20 branches. Worst outage: 5-6 (trafo), V violations=9 (delta=0), thermal violations=0 (delta=0)."}}

--- round 3 ---
[assistant final]   (6893 in / 325 out tokens, 4.8 s)
1. **Summary:** The worst N-1 contingency is the outage of transformer **5–6 (branch ID 100002)**; the post-outage power flow converged with no increase in violations versus the base case.

2. **Key numbers (base case):**
   - Total load: **251.474 MW**
   - Total generation: **263.778 MW**
   - Total losses: **12.303 MW**
   - Voltage range: **1.010–1.090 pu**
   - Worst-outage loading: **1.495%**
   - Worst-outage reported voltage: **1.010 pu**

3. **Violations:**
   - Base case: **9 overvoltage violations**, **0 thermal violations**
   - Transformer 5–6 outage: **9 voltage violations**, **0 thermal violations**
   - Change from base: **0 voltage**, **0 thermal**

4. **Suggested next step:** Investigate voltage-control adjustments to address the existing overvoltage violations; this outage does not add violations.
